LTspice 26.0.1 for Windows
Circuit: C:\users\alex\Documents\LTspice\zns.net
Start Time: Thu Apr 23 12:04:59 2026
solver = Normal
Maximum thread count: 12
tnom = 27
temp = 27
method = trap
.OP point found by inspection.
.OP point found by inspection.
Total elapsed time: 0.913 seconds.

Files loaded:
C:\users\alex\Documents\LTspice\zns.net
C:\users\alex\AppData\Local\LTspice\lib\cmp\standard.dio
C:\users\alex\AppData\Local\LTspice\lib\cmp\standard.mos

